# generated using pymatgen
data_Ba2BiSbO6
_symmetry_space_group_name_H-M   'P 1'
_cell_length_a   8.70638688
_cell_length_b   8.71610055
_cell_length_c   8.64778241
_cell_angle_alpha   90.09021124
_cell_angle_beta   89.93250074
_cell_angle_gamma   89.76217504
_symmetry_Int_Tables_number   1
_chemical_formula_structural   Ba2BiSbO6
_chemical_formula_sum   'Ba8 Bi4 Sb4 O24'
_cell_volume   656.23647038
_cell_formula_units_Z   4
loop_
 _symmetry_equiv_pos_site_id
 _symmetry_equiv_pos_as_xyz
  1  'x, y, z'
loop_
 _atom_site_type_symbol
 _atom_site_label
 _atom_site_symmetry_multiplicity
 _atom_site_fract_x
 _atom_site_fract_y
 _atom_site_fract_z
 _atom_site_occupancy
  Ba  Ba0  1  0.75462674  0.25400729  0.25070638  1
  Ba  Ba1  1  0.75818920  0.25780930  0.75059867  1
  Ba  Ba2  1  0.75371687  0.74959004  0.25019157  1
  Ba  Ba3  1  0.75017182  0.74642999  0.75035275  1
  Ba  Ba4  1  0.24957911  0.25416891  0.25088379  1
  Ba  Ba5  1  0.24594782  0.25101158  0.75092444  1
  Ba  Ba6  1  0.24173449  0.74256033  0.25102919  1
  Ba  Ba7  1  0.24530152  0.74643443  0.75058527  1
  Bi  Bi8  1  -0.00001591  0.00022840  0.00071209  1
  Bi  Bi9  1  0.49989986  0.50016671  0.50069900  1
  Bi  Bi10  1  0.49979026  0.00019535  0.50059170  1
  Bi  Bi11  1  0.49988863  0.00032689  0.00056048  1
  O  O12  1  -0.00893853  0.48923857  0.24766383  1
  O  O13  1  0.76233279  0.49814970  0.51054442  1
  O  O14  1  0.00144909  0.24247572  0.51466373  1
  O  O15  1  0.00884952  0.51120485  0.75414791  1
  O  O16  1  0.74498931  0.50338492  -0.01141145  1
  O  O17  1  0.99653896  0.26551914  -0.01132941  1
  O  O18  1  0.04628256  0.01169816  0.27128240  1
  O  O19  1  0.77140364  0.00290620  0.45440502  1
  O  O20  1  0.99840021  0.75781540  0.48668377  1
  O  O21  1  -0.04640131  -0.01133262  0.73004126  1
  O  O22  1  0.74916072  0.99606540  0.04488187  1
  O  O23  1  0.00355040  0.73491156  0.01310550  1
  O  O24  1  0.50986332  0.54506158  0.23042057  1
  O  O25  1  0.23734105  0.50250570  0.49119985  1
  O  O26  1  0.49657588  0.24986303  0.45671514  1
  O  O27  1  0.49031331  0.45529670  0.77095009  1
  O  O28  1  0.25535203  0.49726371  0.01300915  1
  O  O29  1  0.50359823  0.27213783  0.04535342  1
  O  O30  1  0.46117895  -0.03737798  0.25048435  1
  O  O31  1  0.22833463  0.99744202  0.54676316  1
  O  O32  1  0.50292346  0.75043317  0.54450138  1
  O  O33  1  0.53871705  0.03781260  0.75056192  1
  O  O34  1  0.25067943  0.00497460  0.95613633  1
  O  O35  1  0.49654460  0.72837348  -0.04424788  1
  Sb  Sb36  1  -0.00025167  0.50037325  0.50075489  1
  Sb  Sb37  1  -0.00030229  0.50028694  0.00081617  1
  Sb  Sb38  1  -0.00017944  0.00024900  0.50061502  1
  Sb  Sb39  1  0.49977519  0.50027365  0.00066177  1
