# generated using pymatgen
data_Ba2BiSbO6
_symmetry_space_group_name_H-M   'P 1'
_cell_length_a   8.69003200
_cell_length_b   8.66488040
_cell_length_c   8.68702202
_cell_angle_alpha   89.94998334
_cell_angle_beta   89.66079274
_cell_angle_gamma   89.75038457
_symmetry_Int_Tables_number   1
_chemical_formula_structural   Ba2BiSbO6
_chemical_formula_sum   'Ba8 Bi4 Sb4 O24'
_cell_volume   654.09824301
_cell_formula_units_Z   4
loop_
 _symmetry_equiv_pos_site_id
 _symmetry_equiv_pos_as_xyz
  1  'x, y, z'
loop_
 _atom_site_type_symbol
 _atom_site_label
 _atom_site_symmetry_multiplicity
 _atom_site_fract_x
 _atom_site_fract_y
 _atom_site_fract_z
 _atom_site_occupancy
  Ba  Ba0  1  0.75635089  0.25035432  0.25423556  1
  Ba  Ba1  1  0.75309041  0.25040903  0.74866455  1
  Ba  Ba2  1  0.75143210  0.75079817  0.24750694  1
  Ba  Ba3  1  0.75219727  0.75235467  0.75359430  1
  Ba  Ba4  1  0.24462520  0.24871395  0.24729175  1
  Ba  Ba5  1  0.24621074  0.25124954  0.75090107  1
  Ba  Ba6  1  0.24666964  0.75125984  0.24899524  1
  Ba  Ba7  1  0.24335446  0.74997929  0.74671274  1
  Bi  Bi8  1  -0.00076446  0.00023119  -0.00043194  1
  Bi  Bi9  1  0.49916605  0.50084541  0.49954221  1
  Bi  Bi10  1  0.49937683  0.49963685  -0.00014007  1
  Bi  Bi11  1  0.49890878  0.00030834  0.50002567  1
  O  O12  1  0.99607574  0.48173368  0.23895219  1
  O  O13  1  0.75783143  0.48158556  0.50076242  1
  O  O14  1  0.02155934  0.23590389  0.51843991  1
  O  O15  1  0.00252400  0.51999505  0.76039921  1
  O  O16  1  0.76824003  0.52894426  -0.00160345  1
  O  O17  1  0.97284644  0.26872570  0.98144562  1
  O  O18  1  0.00355123  0.01729712  0.26728149  1
  O  O19  1  0.76801470  0.02282705  0.49684773  1
  O  O20  1  0.97698161  0.75855107  0.48104318  1
  O  O21  1  -0.00554916  0.97774476  0.73231432  1
  O  O22  1  0.73262234  -0.02589285  0.00129425  1
  O  O23  1  0.02553187  0.73249544  0.01790795  1
  O  O24  1  0.50216552  0.54666267  0.25277120  1
  O  O25  1  0.24049345  0.51979260  0.49830141  1
  O  O26  1  0.48096445  0.25396629  0.45513487  1
  O  O27  1  0.49640147  0.45482203  0.74648072  1
  O  O28  1  0.23014188  0.47187220  0.00103476  1
  O  O29  1  0.52284060  0.23042841  0.04611576  1
  O  O30  1  0.49406822  -0.04555500  0.23013729  1
  O  O31  1  0.23017764  0.97249180  0.50247361  1
  O  O32  1  0.51754426  0.74722814  0.54511393  1
  O  O33  1  0.50466509  0.04745269  0.76998360  1
  O  O34  1  0.26608284  0.02753542  -0.00104898  1
  O  O35  1  0.47624231  0.77124413  -0.04535590  1
  Sb  Sb36  1  -0.00105591  0.50411989  0.49927191  1
  Sb  Sb37  1  -0.00075599  0.50063394  -0.00034019  1
  Sb  Sb38  1  -0.00064718  -0.00032206  0.50007949  1
  Sb  Sb39  1  0.49934454  0.00084140  -0.00002211  1
