# generated using pymatgen
data_Ba2BiSbO6
_symmetry_space_group_name_H-M   'P 1'
_cell_length_a   8.64930381
_cell_length_b   8.64535450
_cell_length_c   8.87608525
_cell_angle_alpha   89.99940680
_cell_angle_beta   90.00417732
_cell_angle_gamma   89.42381943
_symmetry_Int_Tables_number   1
_chemical_formula_structural   Ba2BiSbO6
_chemical_formula_sum   'Ba8 Bi4 Sb4 O24'
_cell_volume   663.68723023
_cell_formula_units_Z   4
loop_
 _symmetry_equiv_pos_site_id
 _symmetry_equiv_pos_as_xyz
  1  'x, y, z'
loop_
 _atom_site_type_symbol
 _atom_site_label
 _atom_site_symmetry_multiplicity
 _atom_site_fract_x
 _atom_site_fract_y
 _atom_site_fract_z
 _atom_site_occupancy
  Ba  Ba0  1  0.74823033  0.23955794  0.75828364  1
  Ba  Ba1  1  0.76077543  0.25169883  0.23983364  1
  Ba  Ba2  1  0.74768084  0.74937884  0.74901297  1
  Ba  Ba3  1  0.75147514  0.75168781  0.24924743  1
  Ba  Ba4  1  0.24812452  0.24864353  0.74910249  1
  Ba  Ba5  1  0.25113731  0.25221815  0.24846705  1
  Ba  Ba6  1  0.24871245  0.73985569  0.73998995  1
  Ba  Ba7  1  0.26029281  0.75152570  0.25808004  1
  Bi  Bi8  1  0.00419932  -0.00444251  -0.00096962  1
  Bi  Bi9  1  -0.00102035  0.00135824  0.49913260  1
  Bi  Bi10  1  0.49893062  0.50135082  -0.00087208  1
  Bi  Bi11  1  0.50439525  0.49571917  0.49909358  1
  O  O12  1  0.96643411  0.46356898  0.73122310  1
  O  O13  1  0.77417978  0.50066644  0.01946602  1
  O  O14  1  0.00563688  0.27111693  0.02370969  1
  O  O15  1  0.03533622  0.53476796  0.23037825  1
  O  O16  1  0.77319669  0.49979836  0.45484555  1
  O  O17  1  0.00380954  0.26998804  0.45442784  1
  O  O18  1  0.01234591  0.04793010  0.74939288  1
  O  O19  1  0.72884515  -0.00510793  0.97506640  1
  O  O20  1  -0.00002753  0.72694957  -0.04667813  1
  O  O21  1  -0.04691186  -0.01364462  0.24859426  1
  O  O22  1  0.73027619  0.99721671  0.54214133  1
  O  O23  1  -0.00098565  0.72587429  0.52050691  1
  O  O24  1  0.51286137  0.54789220  0.74865609  1
  O  O25  1  0.23035033  0.49655030  -0.04495036  1
  O  O26  1  0.49876786  0.22602026  0.97810206  1
  O  O27  1  0.45267440  0.48697025  0.24957261  1
  O  O28  1  0.22892855  0.49478266  0.52341081  1
  O  O29  1  0.50003602  0.22728178  0.54346274  1
  O  O30  1  0.46677738  -0.03587919  0.76725275  1
  O  O31  1  0.27276061  -0.00018384  0.04281914  1
  O  O32  1  0.50349518  0.76994544  0.04347146  1
  O  O33  1  0.53539436  0.03471199  0.26659247  1
  O  O34  1  0.27426890  0.00106822  0.47858546  1
  O  O35  1  0.50564889  0.77150808  0.47421471  1
  Sb  Sb36  1  0.00532254  0.50245121  0.00788805  1
  Sb  Sb37  1  -0.00226746  0.49472661  0.50881364  1
  Sb  Sb38  1  0.49763315  -0.00514889  -0.01003762  1
  Sb  Sb39  1  0.50530133  0.00271352  0.48920920  1
