# generated using pymatgen
data_Ba2BiSbO6
_symmetry_space_group_name_H-M   'P 1'
_cell_length_a   8.68445609
_cell_length_b   8.67735218
_cell_length_c   8.68513935
_cell_angle_alpha   90.25428445
_cell_angle_beta   90.30546616
_cell_angle_gamma   90.29774404
_symmetry_Int_Tables_number   1
_chemical_formula_structural   Ba2BiSbO6
_chemical_formula_sum   'Ba8 Bi4 Sb4 O24'
_cell_volume   654.47079503
_cell_formula_units_Z   4
loop_
 _symmetry_equiv_pos_site_id
 _symmetry_equiv_pos_as_xyz
  1  'x, y, z'
loop_
 _atom_site_type_symbol
 _atom_site_label
 _atom_site_symmetry_multiplicity
 _atom_site_fract_x
 _atom_site_fract_y
 _atom_site_fract_z
 _atom_site_occupancy
  Ba  Ba0  1  0.74936061  0.24893025  0.24834581  1
  Ba  Ba1  1  0.75385508  0.25451358  0.74212280  1
  Ba  Ba2  1  0.75502798  0.74295726  0.25431992  1
  Ba  Ba3  1  0.75766238  0.74523910  0.74394517  1
  Ba  Ba4  1  0.24250173  0.25459387  0.25435623  1
  Ba  Ba5  1  0.24526571  0.25656157  0.74473297  1
  Ba  Ba6  1  0.24597229  0.74543460  0.25683699  1
  Ba  Ba7  1  0.25058104  0.75088319  0.75075886  1
  Bi  Bi8  1  -0.00004263  -0.00006542  -0.00060374  1
  Bi  Bi9  1  0.49992580  0.49991273  -0.00068239  1
  Bi  Bi10  1  0.49994798  -0.00011181  0.49912623  1
  Bi  Bi11  1  0.50000973  -0.00024882  -0.00090065  1
  O  O12  1  0.01028707  0.48986498  0.23933862  1
  O  O13  1  0.73898767  0.51214706  0.49238352  1
  O  O14  1  -0.01037379  0.23949871  0.51064830  1
  O  O15  1  -0.01025577  0.51003945  0.76043443  1
  O  O16  1  0.76973913  0.46116851  0.00839041  1
  O  O17  1  0.03835835  0.26987507  -0.01135800  1
  O  O18  1  -0.03533062  0.01027233  0.26893592  1
  O  O19  1  0.76965936  0.98822435  0.53410911  1
  O  O20  1  0.01024402  0.76066224  0.48890179  1
  O  O21  1  0.03539961  0.99008833  0.72995704  1
  O  O22  1  0.74528624  0.03831003  0.97106811  1
  O  O23  1  -0.03841010  0.72998042  0.01080048  1
  O  O24  1  0.49077236  0.53831398  0.26944967  1
  O  O25  1  0.26041133  0.48779394  0.50687716  1
  O  O26  1  0.51045342  0.26967018  0.46086659  1
  O  O27  1  0.50874254  0.46162538  0.72954184  1
  O  O28  1  0.23024436  0.53871028  -0.00866321  1
  O  O29  1  0.46728158  0.24499037  0.03656044  1
  O  O30  1  0.53411264  0.96668234  0.24438462  1
  O  O31  1  0.23026310  0.01206855  0.46449943  1
  O  O32  1  0.48885342  0.73019713  0.53803901  1
  O  O33  1  0.46601370  0.03283085  0.75380436  1
  O  O34  1  0.25473139  -0.03862170  0.02760446  1
  O  O35  1  0.53224001  0.75463819  0.96108075  1
  Sb  Sb36  1  0.00046676  0.49974128  0.49958254  1
  Sb  Sb37  1  0.00000812  0.49995843  -0.00038010  1
  Sb  Sb38  1  0.00003866  0.00005791  0.49943741  1
  Sb  Sb39  1  0.50000734  0.49997021  0.49941507  1
