# generated using pymatgen
data_Ba2BiSbO6
_symmetry_space_group_name_H-M   'P 1'
_cell_length_a   8.63388157
_cell_length_b   8.69396442
_cell_length_c   8.65642403
_cell_angle_alpha   89.56981634
_cell_angle_beta   89.87152397
_cell_angle_gamma   89.70935597
_symmetry_Int_Tables_number   1
_chemical_formula_structural   Ba2BiSbO6
_chemical_formula_sum   'Ba8 Bi4 Sb4 O24'
_cell_volume   649.74595360
_cell_formula_units_Z   4
loop_
 _symmetry_equiv_pos_site_id
 _symmetry_equiv_pos_as_xyz
  1  'x, y, z'
loop_
 _atom_site_type_symbol
 _atom_site_label
 _atom_site_symmetry_multiplicity
 _atom_site_fract_x
 _atom_site_fract_y
 _atom_site_fract_z
 _atom_site_occupancy
  Ba  Ba0  1  0.74929415  0.74756247  0.24665367  1
  Ba  Ba1  1  0.75101251  0.74995666  0.75157193  1
  Ba  Ba2  1  0.75105404  0.24984277  0.25139089  1
  Ba  Ba3  1  0.74894578  0.24773477  0.74674505  1
  Ba  Ba4  1  0.25104467  0.75137757  0.25005610  1
  Ba  Ba5  1  0.24919071  0.74935541  0.74545964  1
  Ba  Ba6  1  0.24919852  0.24907234  0.24527415  1
  Ba  Ba7  1  0.25118970  0.25153397  0.75009782  1
  Bi  Bi8  1  0.00012285  -0.00046478  -0.00171078  1
  Bi  Bi9  1  0.00008171  0.49948292  0.49839025  1
  Bi  Bi10  1  0.50011843  -0.00049928  0.49834138  1
  Bi  Bi11  1  0.50006824  0.49946995  -0.00152386  1
  O  O12  1  0.03560244  0.00506213  0.26639372  1
  O  O13  1  0.76851804  -0.02241530  0.46359107  1
  O  O14  1  0.02499621  0.76705097  0.49609539  1
  O  O15  1  0.96450897  -0.00612267  0.73028893  1
  O  O16  1  0.73158495  0.02142263  0.03237256  1
  O  O17  1  0.97557720  0.73190311  0.00049245  1
  O  O18  1  -0.03522323  0.49396569  0.23034985  1
  O  O19  1  0.73151973  0.52213808  0.53231304  1
  O  O20  1  -0.02536832  0.23196657  0.50053979  1
  O  O21  1  0.03566557  0.50502921  0.76637869  1
  O  O22  1  0.76864745  0.47812718  0.96398189  1
  O  O23  1  0.02491096  0.26706944  0.99592644  1
  O  O24  1  0.46459612  -0.00148057  0.23054609  1
  O  O25  1  0.23150672  0.02139643  0.53293145  1
  O  O26  1  0.47474584  0.73195961  0.49610472  1
  O  O27  1  0.53529959  0.00056401  0.76657450  1
  O  O28  1  0.26850684  -0.02229043  -0.03530307  1
  O  O29  1  0.52458284  0.76705030  0.00093940  1
  O  O30  1  0.53532593  0.50070491  0.26641088  1
  O  O31  1  0.26864246  0.47662583  0.46449231  1
  O  O32  1  0.52582331  0.26712745  0.50053906  1
  O  O33  1  0.46459033  0.49828379  0.73040018  1
  O  O34  1  0.23164677  0.52096254  0.03285212  1
  O  O35  1  0.47553895  0.23198230  0.99616831  1
  Sb  Sb36  1  -0.00000323  -0.00043635  0.49842031  1
  Sb  Sb37  1  0.00012976  0.49950919  -0.00158568  1
  Sb  Sb38  1  0.50003867  -0.00048314  -0.00134893  1
  Sb  Sb39  1  0.50003740  0.49953367  0.49850415  1
