# generated using pymatgen
data_Ba2BiSbO6
_symmetry_space_group_name_H-M   'P 1'
_cell_length_a   8.73109068
_cell_length_b   8.66021064
_cell_length_c   8.66147917
_cell_angle_alpha   90.00290284
_cell_angle_beta   89.98714019
_cell_angle_gamma   89.98822441
_symmetry_Int_Tables_number   1
_chemical_formula_structural   Ba2BiSbO6
_chemical_formula_sum   'Ba8 Bi4 Sb4 O24'
_cell_volume   654.92112424
_cell_formula_units_Z   4
loop_
 _symmetry_equiv_pos_site_id
 _symmetry_equiv_pos_as_xyz
  1  'x, y, z'
loop_
 _atom_site_type_symbol
 _atom_site_label
 _atom_site_symmetry_multiplicity
 _atom_site_fract_x
 _atom_site_fract_y
 _atom_site_fract_z
 _atom_site_occupancy
  Ba  Ba0  1  0.00748612  0.00022728  0.00140467  1
  Ba  Ba1  1  0.00722027  0.00016329  0.50173031  1
  Ba  Ba2  1  0.00757832  0.50012849  0.00173136  1
  Ba  Ba3  1  0.00733315  0.50017526  0.50127422  1
  Ba  Ba4  1  0.49262881  -0.00007166  0.00116540  1
  Ba  Ba5  1  0.49241403  0.00004894  0.50117564  1
  Ba  Ba6  1  0.49286621  0.50004475  0.00116001  1
  Ba  Ba7  1  0.49257184  0.49989746  0.50122100  1
  Bi  Bi8  1  0.75007359  0.25004968  0.25174403  1
  Bi  Bi9  1  0.74993005  0.25011570  0.75176621  1
  Bi  Bi10  1  0.74993913  0.75016615  0.25177417  1
  Bi  Bi11  1  0.75002013  0.75009437  0.75174318  1
  O  O12  1  0.25066534  0.26129126  0.00143307  1
  O  O13  1  0.01492517  0.25063853  0.25076390  1
  O  O14  1  0.24938160  0.00016002  0.24016196  1
  O  O15  1  0.24942633  0.23888725  0.50135881  1
  O  O16  1  0.01472935  0.24830421  0.75212697  1
  O  O17  1  0.25155492  0.00016761  0.76266739  1
  O  O18  1  0.24915984  0.73886678  0.00132518  1
  O  O19  1  0.01479323  0.74949253  0.25234243  1
  O  O20  1  0.25068618  0.50006584  0.26225938  1
  O  O21  1  0.25078810  0.76126297  0.50137481  1
  O  O22  1  0.01477843  0.75195895  0.75058535  1
  O  O23  1  0.24809576  0.50013554  0.73981667  1
  O  O24  1  0.74915021  0.19140420  0.00173436  1
  O  O25  1  0.48522143  0.24949451  0.25236462  1
  O  O26  1  0.75062993  0.00008751  0.31077776  1
  O  O27  1  0.75089523  0.30867237  0.50172445  1
  O  O28  1  0.48511996  0.25208313  0.75081620  1
  O  O29  1  0.74810751  0.00014479  0.69305656  1
  O  O30  1  0.75060914  0.80887086  0.00172247  1
  O  O31  1  0.48512243  0.75086459  0.25064283  1
  O  O32  1  0.74969703  0.50012106  0.19298674  1
  O  O33  1  0.74923154  0.69136047  0.50175348  1
  O  O34  1  0.48514187  0.74829136  0.75235804  1
  O  O35  1  0.75169767  0.50009090  0.81053576  1
  Sb  Sb36  1  0.25008218  0.25008226  0.25100543  1
  Sb  Sb37  1  0.24990973  0.25006527  0.75098545  1
  Sb  Sb38  1  0.24997081  0.75012298  0.25098309  1
  Sb  Sb39  1  0.24998076  0.75001066  0.75098677  1
