# generated using pymatgen
data_Sr2TaMnO6
_symmetry_space_group_name_H-M   'P 1'
_cell_length_a   8.00000000
_cell_length_b   8.00000000
_cell_length_c   8.00000000
_cell_angle_alpha   90.00000000
_cell_angle_beta   90.00000000
_cell_angle_gamma   90.00000000
_symmetry_Int_Tables_number   1
_chemical_formula_structural   Sr2TaMnO6
_chemical_formula_sum   'Sr8 Ta4 Mn4 O24'
_cell_volume   512.00000000
_cell_formula_units_Z   4
loop_
 _symmetry_equiv_pos_site_id
 _symmetry_equiv_pos_as_xyz
  1  'x, y, z'
loop_
 _atom_site_type_symbol
 _atom_site_label
 _atom_site_symmetry_multiplicity
 _atom_site_fract_x
 _atom_site_fract_y
 _atom_site_fract_z
 _atom_site_occupancy
  Sr  Sr0  1  0.75000100  0.25000100  0.25000100  1
  Ta  Ta1  1  0.00000100  0.50000100  0.50000100  1
  O  O2  1  0.00000100  0.50000100  0.25000100  1
  O  O3  1  0.75000100  0.50000100  0.50000100  1
  O  O4  1  0.00000100  0.25000100  0.50000100  1
  Sr  Sr5  1  0.75000100  0.25000100  0.75000100  1
  Ta  Ta6  1  0.00000100  0.50000100  0.00000100  1
  O  O7  1  0.00000100  0.50000100  0.75000100  1
  O  O8  1  0.75000100  0.50000100  0.00000100  1
  O  O9  1  0.00000100  0.25000100  0.00000100  1
  Sr  Sr10  1  0.75000100  0.75000100  0.25000100  1
  Ta  Ta11  1  0.00000100  0.00000100  0.50000100  1
  O  O12  1  0.00000100  0.00000100  0.25000100  1
  O  O13  1  0.75000100  0.00000100  0.50000100  1
  O  O14  1  0.00000100  0.75000100  0.50000100  1
  Sr  Sr15  1  0.75000100  0.75000100  0.75000100  1
  Mn  Mn16  1  0.00000100  0.00000100  0.00000100  1
  O  O17  1  0.00000100  0.00000100  0.75000100  1
  O  O18  1  0.75000100  0.00000100  0.00000100  1
  O  O19  1  0.00000100  0.75000100  0.00000100  1
  Sr  Sr20  1  0.25000100  0.25000100  0.25000100  1
  Ta  Ta21  1  0.50000100  0.50000100  0.50000100  1
  O  O22  1  0.50000100  0.50000100  0.25000100  1
  O  O23  1  0.25000100  0.50000100  0.50000100  1
  O  O24  1  0.50000100  0.25000100  0.50000100  1
  Sr  Sr25  1  0.25000100  0.25000100  0.75000100  1
  Mn  Mn26  1  0.50000100  0.50000100  0.00000100  1
  O  O27  1  0.50000100  0.50000100  0.75000100  1
  O  O28  1  0.25000100  0.50000100  0.00000100  1
  O  O29  1  0.50000100  0.25000100  0.00000100  1
  Sr  Sr30  1  0.25000100  0.75000100  0.25000100  1
  Mn  Mn31  1  0.50000100  0.00000100  0.50000100  1
  O  O32  1  0.50000100  0.00000100  0.25000100  1
  O  O33  1  0.25000100  0.00000100  0.50000100  1
  O  O34  1  0.50000100  0.75000100  0.50000100  1
  Sr  Sr35  1  0.25000100  0.75000100  0.75000100  1
  Mn  Mn36  1  0.50000100  0.00000100  0.00000100  1
  O  O37  1  0.50000100  0.00000100  0.75000100  1
  O  O38  1  0.25000100  0.00000100  0.00000100  1
  O  O39  1  0.50000100  0.75000100  0.00000100  1
